! Arquivo PVSystemExit
New loadshape.Curva_SFV_Exist npts=24 interval=1
~ mult=[0 0 0 0 0 0 0.1 0.25 0.5 0.65 0.87 0.95 0.98 0.97 0.94 0.9 0.8 0.65 0.35 0.15 0 0 0 0]
New generator.SFV_Exist phases=3 bus1=5 kV=13.8 pf=1.0 kW=200 Daily=Curva_SFV_Exist model=1
