! Arquivo Loadshape
New loadshape.Comercial npts=24 interval=1
~ mult=[0.4 0.4 0.38 0.35 0.35 0.35 0.35 0.38 0.55 0.7 0.8 0.8 0.75 0.75 0.73 0.73 0.7 0.75 0.85 0.75 0.65 0.6 0.5 0.45]
New loadshape.Industrial npts=24 interval=1
~ mult=[0.6 0.6 0.55 0.6 0.6 0.55 0.65 0.75 0.85 0.95 0.95 0.9 0.85 0.95 0.95 0.9 0.8 0.6 0.4 0.35 0.34 0.65 0.65 0.6]
New loadshape.SE_ADM npts=24 interval=1
~ mult=[0.25 0.3 0.33 0.37 0.4 0.43 0.49 0.55 0.65 0.68 0.72 0.78 0.85 0.87 0.92 0.88 0.79 0.73 0.68 0.6 0.55 0.52 0.48 0.4]
New loadshape.SE_FÁBRICA npts=24 interval=1
~ mult=[0.3 0.35 0.4 0.4 0.4 0.45 0.4 0.53 0.65 0.7 0.75 0.78 0.82 0.9 0.92 0.95 0.9 0.93 0.9 0.86 0.7 0.65 0.55 0.45]
